File C:\Users\lyoshi\Documents\MATLAB\StructuralStabilityTheory\5拱的稳定\Sap2000_flatarch_0.2\arch.$2k was saved on m/d/yy at h:mm:ss
 
TABLE:  "ACTIVE DEGREES OF FREEDOM"
   UX=Yes   UY=No   UZ=Yes   RX=No   RY=Yes   RZ=No
 
TABLE:  "ANALYSIS OPTIONS"
   Solver=Advanced   SolverProc=Auto   Force32Bit=No   StiffCase=None   GeomMod=None
 
TABLE:  "AUTO WAVE 3 - WAVE CHARACTERISTICS - GENERAL"
   WaveChar=Default   WaveType="From Theory"   KinFactor=1   SWaterDepth=45000   WaveHeight=18000   WavePeriod=12   WaveTheory=Linear
 
TABLE:  "CASE - BUCKLING 1 - GENERAL"
   Case=BUCK1   NumBuckMode=6   EigenTol=1E-09
 
TABLE:  "CASE - BUCKLING 2 - LOAD ASSIGNMENTS"
   Case=BUCK1   LoadType="Load pattern"   LoadName=DEAD   LoadSF=1
 
TABLE:  "CASE - MODAL 1 - GENERAL"
   Case=MODAL   ModeType=Eigen   MaxNumModes=12   MinNumModes=1   EigenShift=0   EigenCutoff=0   EigenTol=1E-09   AutoShift=Yes
 
TABLE:  "CASE - STATIC 1 - LOAD ASSIGNMENTS"
   Case=DEAD   LoadType="Load pattern"   LoadName=DEAD   LoadSF=1
   Case=NLSTAT1   LoadType="Load pattern"   LoadName=DEAD   LoadSF=1
 
TABLE:  "CASE - STATIC 2 - NONLINEAR LOAD APPLICATION"
   Case=NLSTAT1   LoadApp="Displ Ctrl"   DisplType=Monitored   TargetDispl=500   MonitorDOF=U3
 
TABLE:  "CASE - STATIC 4 - NONLINEAR PARAMETERS"
   Case=NLSTAT1   GeoNonLin="Large Displ"   ResultsSave="Multiple States"   MinNumState=100   MaxNumState=200   PosIncOnly=Yes   MaxTotal=200   MaxNull=50   UseEvStep=Yes   EvLumpTol=0.01   MaxIterCS=10   MaxIterNR=40   ItConvTol=0.0001 _
        UseLineSrch=Yes   LSPerIter=20   LSTol=0.1   LSStepFact=1.618   FrameTC=Yes   FrameHinge=Yes   CableTC=Yes   LinkTC=Yes   LinkOther=Yes   TFMaxIter=10   TFTol=0.01   TFAccelFact=1   TFNoStop=No
 
TABLE:  "CONNECTIVITY - FRAME"
   Frame=1   JointI=13   JointJ=1   IsCurved=No   GUID=4f0eff05-945a-4305-9c43-735c21efa45a
   Frame=2   JointI=1   JointJ=3   IsCurved=No   GUID=6e69d03c-9a32-4c5f-9ed9-cec3f289c9e3
   Frame=3   JointI=3   JointJ=5   IsCurved=No   GUID=221127a1-f4cc-4650-ae84-84155674978e
   Frame=4   JointI=5   JointJ=7   IsCurved=No   GUID=9a1e4d10-3ae7-4420-8d5f-7e5289e1e22e
   Frame=5   JointI=7   JointJ=9   IsCurved=No   GUID=458760eb-510c-4c9c-a5fc-828efc7b7417
   Frame=6   JointI=9   JointJ=8   IsCurved=No   GUID=4edb8c7e-d120-447b-ba4a-6319d588e50d
   Frame=7   JointI=8   JointJ=6   IsCurved=No   GUID=63d0bf0f-9d76-4b70-b1d0-12ad9d68149e
   Frame=8   JointI=6   JointJ=4   IsCurved=No   GUID=94803559-8043-44a8-9e29-6d6f4746c49d
   Frame=9   JointI=4   JointJ=2   IsCurved=No   GUID=386b38ec-701b-4aa4-8d46-f9f6781a5710
   Frame=10   JointI=2   JointJ=23   IsCurved=No   GUID=36750d5c-5d86-4c1a-b37a-fd8e13e220dd
 
TABLE:  "COORDINATE SYSTEMS"
   Name=GLOBAL   Type=Cartesian   X=0   Y=0   Z=0   AboutZ=0   AboutY=0   AboutX=0
 
TABLE:  "DATABASE DOCUMENTATION"
 
TABLE:  "DATABASE FORMAT TYPES"
   UnitsCurr=Yes   OverrideE=No
 
TABLE:  "FRAME AUTO MESH ASSIGNMENTS"
   Frame=1   AutoMesh=Yes   AtJoints=Yes   AtFrames=No   NumSegments=0   MaxLength=0   MaxDegrees=0
   Frame=2   AutoMesh=Yes   AtJoints=Yes   AtFrames=No   NumSegments=0   MaxLength=0   MaxDegrees=0
   Frame=3   AutoMesh=Yes   AtJoints=Yes   AtFrames=No   NumSegments=0   MaxLength=0   MaxDegrees=0
   Frame=4   AutoMesh=Yes   AtJoints=Yes   AtFrames=No   NumSegments=0   MaxLength=0   MaxDegrees=0
   Frame=5   AutoMesh=Yes   AtJoints=Yes   AtFrames=No   NumSegments=0   MaxLength=0   MaxDegrees=0
   Frame=6   AutoMesh=Yes   AtJoints=Yes   AtFrames=No   NumSegments=0   MaxLength=0   MaxDegrees=0
   Frame=7   AutoMesh=Yes   AtJoints=Yes   AtFrames=No   NumSegments=0   MaxLength=0   MaxDegrees=0
   Frame=8   AutoMesh=Yes   AtJoints=Yes   AtFrames=No   NumSegments=0   MaxLength=0   MaxDegrees=0
   Frame=9   AutoMesh=Yes   AtJoints=Yes   AtFrames=No   NumSegments=0   MaxLength=0   MaxDegrees=0
   Frame=10   AutoMesh=Yes   AtJoints=Yes   AtFrames=No   NumSegments=0   MaxLength=0   MaxDegrees=0
 
TABLE:  "FRAME DESIGN PROCEDURES"
   Frame=1   DesignProc="From Material"
   Frame=2   DesignProc="From Material"
   Frame=3   DesignProc="From Material"
   Frame=4   DesignProc="From Material"
   Frame=5   DesignProc="From Material"
   Frame=6   DesignProc="From Material"
   Frame=7   DesignProc="From Material"
   Frame=8   DesignProc="From Material"
   Frame=9   DesignProc="From Material"
   Frame=10   DesignProc="From Material"
 
TABLE:  "FRAME LOADS - DISTRIBUTED"
   Frame=1   LoadPat=DEAD   CoordSys=GLOBAL   Type=Force   Dir=Z   DistType=RelDist   RelDistA=0   RelDistB=1   AbsDistA=0   AbsDistB=505.157401212731   FOverLA=-1   FOverLB=-1   GUID=ea5acdc0-6b69-4555-bf64-3f7e7e95d065
   Frame=2   LoadPat=DEAD   CoordSys=GLOBAL   Type=Force   Dir=Z   DistType=RelDist   RelDistA=0   RelDistB=1   AbsDistA=0   AbsDistB=503.126226706579   FOverLA=-1   FOverLB=-1   GUID=3c1141f9-0d02-4e28-8e64-139cd8605621
   Frame=3   LoadPat=DEAD   CoordSys=GLOBAL   Type=Force   Dir=Z   DistType=RelDist   RelDistA=0   RelDistB=1   AbsDistA=0   AbsDistB=501.597448159378   FOverLA=-1   FOverLB=-1   GUID=dc226ea1-e04e-4bf4-b911-1d901b01cd4c
   Frame=4   LoadPat=DEAD   CoordSys=GLOBAL   Type=Force   Dir=Z   DistType=RelDist   RelDistA=0   RelDistB=1   AbsDistA=0   AbsDistB=500.575668605656   FOverLA=-1   FOverLB=-1   GUID=aaab4a8a-659f-4e40-ab94-68f894c21f24
   Frame=5   LoadPat=DEAD   CoordSys=GLOBAL   Type=Force   Dir=Z   DistType=RelDist   RelDistA=0   RelDistB=1   AbsDistA=0   AbsDistB=500.063995904524   FOverLA=-1   FOverLB=-1   GUID=5cbcf0a4-3e6c-4f9e-ae5c-7c7b6779d86b
   Frame=6   LoadPat=DEAD   CoordSys=GLOBAL   Type=Force   Dir=Z   DistType=RelDist   RelDistA=0   RelDistB=1   AbsDistA=0   AbsDistB=500.063995904524   FOverLA=-1   FOverLB=-1   GUID=cb4e7a19-a308-4a8b-93a7-c5bad20d7e92
   Frame=7   LoadPat=DEAD   CoordSys=GLOBAL   Type=Force   Dir=Z   DistType=RelDist   RelDistA=0   RelDistB=1   AbsDistA=0   AbsDistB=500.575668605656   FOverLA=-1   FOverLB=-1   GUID=6c58cad9-e7a0-47d2-bdfa-860fcaeaecdf
   Frame=8   LoadPat=DEAD   CoordSys=GLOBAL   Type=Force   Dir=Z   DistType=RelDist   RelDistA=0   RelDistB=1   AbsDistA=0   AbsDistB=501.597448159378   FOverLA=-1   FOverLB=-1   GUID=d607a801-a7af-405c-8c3a-6845dfededb7
   Frame=9   LoadPat=DEAD   CoordSys=GLOBAL   Type=Force   Dir=Z   DistType=RelDist   RelDistA=0   RelDistB=1   AbsDistA=0   AbsDistB=503.126226706579   FOverLA=-1   FOverLB=-1   GUID=f54f6e73-d610-43f0-9ae1-43896e0f67d8
   Frame=10   LoadPat=DEAD   CoordSys=GLOBAL   Type=Force   Dir=Z   DistType=RelDist   RelDistA=0   RelDistB=1   AbsDistA=0   AbsDistB=505.157401212731   FOverLA=-1   FOverLB=-1   GUID=cd9530a4-7b33-4d1e-8bae-b10b1768411d
 
TABLE:  "FRAME LOAD TRANSFER OPTIONS"
   Frame=1   Transfer=Yes
   Frame=2   Transfer=Yes
   Frame=3   Transfer=Yes
   Frame=4   Transfer=Yes
   Frame=5   Transfer=Yes
   Frame=6   Transfer=Yes
   Frame=7   Transfer=Yes
   Frame=8   Transfer=Yes
   Frame=9   Transfer=Yes
   Frame=10   Transfer=Yes
 
TABLE:  "FRAME OUTPUT STATION ASSIGNMENTS"
   Frame=1   StationType=MinNumSta   MinNumSta=3   AddAtElmInt=Yes   AddAtPtLoad=Yes
   Frame=2   StationType=MinNumSta   MinNumSta=3   AddAtElmInt=Yes   AddAtPtLoad=Yes
   Frame=3   StationType=MinNumSta   MinNumSta=3   AddAtElmInt=Yes   AddAtPtLoad=Yes
   Frame=4   StationType=MinNumSta   MinNumSta=3   AddAtElmInt=Yes   AddAtPtLoad=Yes
   Frame=5   StationType=MinNumSta   MinNumSta=3   AddAtElmInt=Yes   AddAtPtLoad=Yes
   Frame=6   StationType=MinNumSta   MinNumSta=3   AddAtElmInt=Yes   AddAtPtLoad=Yes
   Frame=7   StationType=MinNumSta   MinNumSta=3   AddAtElmInt=Yes   AddAtPtLoad=Yes
   Frame=8   StationType=MinNumSta   MinNumSta=3   AddAtElmInt=Yes   AddAtPtLoad=Yes
   Frame=9   StationType=MinNumSta   MinNumSta=3   AddAtElmInt=Yes   AddAtPtLoad=Yes
   Frame=10   StationType=MinNumSta   MinNumSta=3   AddAtElmInt=Yes   AddAtPtLoad=Yes
 
TABLE:  "FRAME SECTION ASSIGNMENTS"
   Frame=1   AutoSelect=N.A.   AnalSect=CHS300*5   MatProp=Default
   Frame=2   AutoSelect=N.A.   AnalSect=CHS300*5   MatProp=Default
   Frame=3   AutoSelect=N.A.   AnalSect=CHS300*5   MatProp=Default
   Frame=4   AutoSelect=N.A.   AnalSect=CHS300*5   MatProp=Default
   Frame=5   AutoSelect=N.A.   AnalSect=CHS300*5   MatProp=Default
   Frame=6   AutoSelect=N.A.   AnalSect=CHS300*5   MatProp=Default
   Frame=7   AutoSelect=N.A.   AnalSect=CHS300*5   MatProp=Default
   Frame=8   AutoSelect=N.A.   AnalSect=CHS300*5   MatProp=Default
   Frame=9   AutoSelect=N.A.   AnalSect=CHS300*5   MatProp=Default
   Frame=10   AutoSelect=N.A.   AnalSect=CHS300*5   MatProp=Default
 
TABLE:  "FRAME SECTION PROPERTIES 01 - GENERAL"
   SectionName=CHS300*5   Material=Q345   Shape=Pipe   t3=300   tw=5   Area=4633.84916404494   TorsConst=100844142.432528   I33=50422071.2162641   I22=50422071.2162641   I23=0   AS2=2317.36826731202   AS3=2317.36826731202 _
        S33=336147.14144176   S22=336147.14144176   Z33=435166.666666667   Z22=435166.666666667   R33=104.313230225125   R22=104.313230225125   Color=Cyan   FromFile=No   AMod=1   A2Mod=1   A3Mod=1   JMod=1   I2Mod=1   I3Mod=1   MMod=1 _
        WMod=1   Notes="Added 2016/12/1 0:07:14"
 
TABLE:  "FRAME SECTION PROPERTIES 13 - TIME DEPENDENT"
   SectionName=CHS300*5   TypeSize=Auto   AutoSFSize=1
 
TABLE:  "FUNCTION - PLOT FUNCTIONS"
   PlotFunc="Input Energy"   Type=Energy   Component=Input   Mode=All
   PlotFunc="acc dir 1"   Type=LoadFunc   Component="Acc Dir 1"   Mode=All
   PlotFunc=DEAD   Type=LoadFunc   Component=DEAD   Mode=All
   PlotFunc=Joint9   Type=Joint   ObjectLabel=9   Component=RelDispU3   Mode=All
 
TABLE:  "FUNCTION - POWER SPECTRAL DENSITY - USER"
   Name=UNIFPSD   Frequency=0   Value=1
   Name=UNIFPSD   Frequency=1   Value=1
 
TABLE:  "FUNCTION - RESPONSE SPECTRUM - USER"
   Name=UNIFRS   Period=0   Accel=1   FuncDamp=0.05
   Name=UNIFRS   Period=1   Accel=1
 
TABLE:  "FUNCTION - STEADY STATE - USER"
   Name=UNIFSS   Frequency=0   Value=1
   Name=UNIFSS   Frequency=1   Value=1
 
TABLE:  "FUNCTION - TIME HISTORY - USER"
   Name=RAMPTH   Time=0   Value=0
   Name=RAMPTH   Time=1   Value=1
   Name=RAMPTH   Time=4   Value=1
   Name=UNIFTH   Time=0   Value=1
   Name=UNIFTH   Time=1   Value=1
 
TABLE:  "GRID LINES"
   CoordSys=GLOBAL   AxisDir=X   XRYZCoord=-0.00869560241699219   LineType=Primary   LineColor=Gray8Dark   Visible=Yes   BubbleLoc=End   AllVisible=Yes   BubbleSize=2438.4
   CoordSys=GLOBAL   AxisDir=X   XRYZCoord=4999.99130439758   LineType=Primary   LineColor=Gray8Dark   Visible=Yes   BubbleLoc=End
   CoordSys=GLOBAL   AxisDir=Y   XRYZCoord=0   LineType=Primary   LineColor=Gray8Dark   Visible=Yes   BubbleLoc=End
   CoordSys=GLOBAL   AxisDir=Z   XRYZCoord=-0.00347816944122314   LineType=Primary   LineColor=Gray8Dark   Visible=Yes   BubbleLoc=End
   CoordSys=GLOBAL   AxisDir=Z   XRYZCoord=99.9965218305588   LineType=Primary   LineColor=Gray8Dark   Visible=Yes   BubbleLoc=End
 
TABLE:  "GROUPS 1 - DEFINITIONS"
   GroupName=ALL   Selection=Yes   SectionCut=Yes   Steel=Yes   Concrete=Yes   Aluminum=Yes   ColdFormed=Yes   Stage=Yes   Bridge=Yes   AutoSeismic=No   AutoWind=No   SelDesSteel=No   SelDesAlum=No   SelDesCold=No   MassWeight=Yes   Color=Red
 
TABLE:  "JOINT COORDINATES"
   Joint=1   CoordSys=GLOBAL   CoordType=Cartesian   XorR=499.991304397583   Y=0   Z=71.9965218305588   SpecialJt=Yes   GUID=d6ca48b8-7d18-4cea-a10a-fe1c38f605af
   Joint=2   CoordSys=GLOBAL   CoordType=Cartesian   XorR=4499.99130439758   Y=0   Z=71.9965218305588   SpecialJt=Yes   GUID=d6ca48b8-7d18-4cea-a10a-fe1c38f605af
   Joint=3   CoordSys=GLOBAL   CoordType=Cartesian   XorR=999.991304397583   Y=0   Z=127.996521830559   SpecialJt=Yes   GUID=d6ca48b8-7d18-4cea-a10a-fe1c38f605af
   Joint=4   CoordSys=GLOBAL   CoordType=Cartesian   XorR=3999.99130439758   Y=0   Z=127.996521830559   SpecialJt=Yes   GUID=d6ca48b8-7d18-4cea-a10a-fe1c38f605af
   Joint=5   CoordSys=GLOBAL   CoordType=Cartesian   XorR=1499.99130439758   Y=0   Z=167.996521830559   SpecialJt=Yes   GUID=d6ca48b8-7d18-4cea-a10a-fe1c38f605af
   Joint=6   CoordSys=GLOBAL   CoordType=Cartesian   XorR=3499.99130439758   Y=0   Z=167.996521830559   SpecialJt=Yes   GUID=d6ca48b8-7d18-4cea-a10a-fe1c38f605af
   Joint=7   CoordSys=GLOBAL   CoordType=Cartesian   XorR=1999.99130439758   Y=0   Z=191.996521830559   SpecialJt=Yes   GUID=d6ca48b8-7d18-4cea-a10a-fe1c38f605af
   Joint=8   CoordSys=GLOBAL   CoordType=Cartesian   XorR=2999.99130439758   Y=0   Z=191.996521830559   SpecialJt=Yes   GUID=d6ca48b8-7d18-4cea-a10a-fe1c38f605af
   Joint=9   CoordSys=GLOBAL   CoordType=Cartesian   XorR=2499.99130439758   Y=0   Z=199.996521830559   SpecialJt=Yes   GUID=d6ca48b8-7d18-4cea-a10a-fe1c38f605af
   Joint=13   CoordSys=GLOBAL   CoordType=Cartesian   XorR=-0.00869560241699219   Y=0   Z=-0.00347816944122314   SpecialJt=Yes   GUID=e1583764-fbe5-4fa0-b15f-c9c1093ff5cf
   Joint=23   CoordSys=GLOBAL   CoordType=Cartesian   XorR=4999.99130439758   Y=0   Z=-0.00347816944122314   SpecialJt=Yes   GUID=e1583764-fbe5-4fa0-b15f-c9c1093ff5cf
 
TABLE:  "JOINT PATTERN DEFINITIONS"
   Pattern=Default
 
TABLE:  "JOINT RESTRAINT ASSIGNMENTS"
   Joint=13   U1=Yes   U2=Yes   U3=Yes   R1=No   R2=No   R3=No
   Joint=23   U1=Yes   U2=Yes   U3=Yes   R1=No   R2=No   R3=No
 
TABLE:  "LOAD CASE DEFINITIONS"
   Case=DEAD   Type=LinStatic   InitialCond=Zero   DesTypeOpt="Prog Det"   DesignType=Dead   DesActOpt="Prog Det"   DesignAct=Non-Composite   AutoType=None   RunCase=No
   Case=MODAL   Type=LinModal   InitialCond=Zero   DesTypeOpt="Prog Det"   DesignType=Other   DesActOpt="Prog Det"   DesignAct=Other   AutoType=None   RunCase=No
   Case=NLSTAT1   Type=NonStatic   InitialCond=Zero   DesTypeOpt="Prog Det"   DesignType=Dead   DesActOpt="Prog Det"   DesignAct=Non-Composite   AutoType=None   RunCase=Yes
   Case=BUCK1   Type=LinBuckling   InitialCond=Zero   DesTypeOpt="Prog Det"   DesignType=Dead   DesActOpt="Prog Det"   DesignAct=Other   AutoType=None   RunCase=Yes
 
TABLE:  "LOAD PATTERN DEFINITIONS"
   LoadPat=DEAD   DesignType=Dead   SelfWtMult=0   GUID=fd4a8db1-9584-431b-bc94-fc496eacaede
 
TABLE:  "MASS SOURCE"
   MassSource=MSSSRC1   Elements=Yes   Masses=Yes   Loads=No   IsDefault=Yes
 
TABLE:  "MATERIAL PROPERTIES 01 - GENERAL"
   Material=C30   Type=Concrete   SymType=Isotropic   TempDepend=No   Color=Red   Notes="GB GB50010 C30 2016/12/1 0:00:15"
   Material=Q345   Type=Steel   SymType=Isotropic   TempDepend=No   Color=Cyan   Notes="GB Q345 2016/12/1 0:00:15"
 
TABLE:  "MATERIAL PROPERTIES 02 - BASIC MECHANICAL PROPERTIES"
   Material=C30   UnitWeight=2.5E-05   UnitMass=2.55E-09   E1=30000   G12=12500   U12=0.2   A1=1E-05
   Material=Q345   UnitWeight=7.7E-05   UnitMass=7.85E-09   E1=200000   G12=76923.0769230769   U12=0.3   A1=1.17E-05
 
TABLE:  "MATERIAL PROPERTIES 03A - STEEL DATA"
   Material=Q345   Fy=345   Fu=510   EffFy=380   EffFu=560   SSCurveOpt=Simple   SSHysType=Kinematic   SHard=0.015   SMax=0.11   SRup=0.17   FinalSlope=-0.1
 
TABLE:  "MATERIAL PROPERTIES 03B - CONCRETE DATA"
   Material=C30   Fc=20.1   eFc=20.1   LtWtConc=No   SSCurveOpt=Mander   SSHysType=Takeda   SFc=0.002   SCap=0.005   FinalSlope=-0.1   FAngle=0   DAngle=0
 
TABLE:  "MATERIAL PROPERTIES 06 - DAMPING PARAMETERS"
   Material=C30   ModalRatio=0   VisMass=0   VisStiff=0   HysMass=0   HysStiff=0
   Material=Q345   ModalRatio=0   VisMass=0   VisStiff=0   HysMass=0   HysStiff=0
 
TABLE:  "OPTIONS - COLORS - DISPLAY"
   DeviceType=Screen   Points=Blue   LinesFrame=Blue   LinesFrmDL=Blue   LinesCable=Green   LinesTendon=Green   SpringLinks=Green   Restraints=Green   Releases=Green   Axes=Cyan   Text=Black   ShadowLines=Gray8Dark   GuideLines=Gray8Dark _
        Highlight=Red   Selection=10504778   AreaFillBot=Red   AreaFillTop=16744703   AreaFillSd=Red   AreaEdge=DarkRed   SolidF1=Red   SolidF2=Blue   SolidF3=Green   SolidF4=Yellow   SolidF5=White   SolidF6=Cyan   SolidEdge=DarkRed _
        Floor=Gray4   Background=White   BGLowLeft=White   BGLowRight=White   BGUpRight=White   Darkness=0.5
   DeviceType=Printer   Points=Gray8Dark   LinesFrame=Black   LinesFrmDL=Gray4   LinesCable=Black   LinesTendon=Black   SpringLinks=Gray8Dark   Restraints=Gray8Dark   Releases=Gray4   Axes=Black   Text=Black   ShadowLines=Gray4 _
        GuideLines=Gray4   Highlight=Black   Selection=Black   AreaFillBot=Gray4   AreaFillTop=Gray8Dark   AreaFillSd=Gray4   AreaEdge=Black   SolidF1=Gray1Light   SolidF2=Gray2   SolidF3=Gray3   SolidF4=Gray4   SolidF5=Gray5 _
        SolidF6=Gray6   SolidEdge=Black   Floor=Gray4   Background=White   BGLowLeft=White   BGLowRight=White   BGUpRight=White   Darkness=0.5
   DeviceType="Color Printer"   Points=Blue   LinesFrame=Blue   LinesFrmDL=Blue   LinesCable=Green   LinesTendon=Green   SpringLinks=Green   Restraints=Green   Releases=Green   Axes=Cyan   Text=Black   ShadowLines=Gray8Dark _
        GuideLines=Gray8Dark   Highlight=Red   Selection=10504778   AreaFillBot=Red   AreaFillTop=16744703   AreaFillSd=Red   AreaEdge=DarkRed   SolidF1=Red   SolidF2=Blue   SolidF3=Green   SolidF4=Yellow   SolidF5=White   SolidF6=Cyan _
        SolidEdge=DarkRed   Floor=Gray4   Background=White   BGLowLeft=White   BGLowRight=White   BGUpRight=White   Darkness=0.5
 
TABLE:  "OPTIONS - COLORS - OUTPUT"
   DeviceType=Screen   Contour1=13107400   Contour2=6553828   Contour3=Red   Contour4=16639   Contour5=Orange   Contour6=43775   Contour7=54527   Contour8=Yellow   Contour9=65408   Contour10=Green   Contour11=8453888   Contour12=Cyan _
        Contour13=16755200   Contour14=16733440   Contour15=Blue   Transpare=0.5   Ratio1=Cyan   Ratio2=Green   Ratio3=Yellow   Ratio4=Orange   Ratio5=Red   RatioNotD=Gray4   RatioNotC=Red   RatioVal1=0.5   RatioVal2=0.7   RatioVal3=0.9 _
        RatioVal4=1   DFillPos=Blue   DFillNeg=Red   DFillRPos=Green   DFillRNeg=Green
   DeviceType=Printer   Contour1=Black   Contour2=3158064   Contour3=4210752   Contour4=5263440   Contour5=6316128   Contour6=7368816   Contour7=Gray8Dark   Contour8=Gray7   Contour9=Gray6   Contour10=Gray5   Contour11=Gray4 _
        Contour12=Gray3   Contour13=Gray2   Contour14=Gray1Light   Contour15=White   Transpare=0   Ratio1=Gray2   Ratio2=Gray4   Ratio3=Gray8Dark   Ratio4=4210752   Ratio5=Black   RatioNotD=Gray4   RatioNotC=Black   RatioVal1=0.5 _
        RatioVal2=0.7   RatioVal3=0.9   RatioVal4=1   DFillPos=Gray8Dark   DFillNeg=Gray8Dark   DFillRPos=4210752   DFillRNeg=4210752
   DeviceType="Color Printer"   Contour1=13107400   Contour2=6553828   Contour3=Red   Contour4=16639   Contour5=Orange   Contour6=43775   Contour7=54527   Contour8=Yellow   Contour9=65408   Contour10=Green   Contour11=8453888 _
        Contour12=Cyan   Contour13=16755200   Contour14=16733440   Contour15=Blue   Transpare=0   Ratio1=Cyan   Ratio2=Green   Ratio3=Yellow   Ratio4=Orange   Ratio5=Red   RatioNotD=Gray4   RatioNotC=Red   RatioVal1=0.5   RatioVal2=0.7 _
        RatioVal3=0.9   RatioVal4=1   DFillPos=Blue   DFillNeg=Red   DFillRPos=Green   DFillRNeg=Green
 
TABLE:  "PREFERENCES - ALUMINUM DESIGN - AA-ASD 2000"
   THDesign=Envelopes   FrameType="Moment Frame"   SRatioLimit=1   MaxIter=1   LatFact=1.33333333333333   UseLatFact=No   Bridge=No
 
TABLE:  "PREFERENCES - COLD FORMED DESIGN - AISI-ASD96"
   THDesign=Envelopes   FrameType="Braced Frame"   SRatioLimit=1   MaxIter=1   OmegaBS=1.67   OmegaBUS=1.67   OmegaBLTB=1.67   OmegaVS=1.67   OmegaVNS=1.5   OmegaT=1.67   OmegaC=1.8
 
TABLE:  "PREFERENCES - CONCRETE DESIGN - ACI 318-14"
   THDesign=Envelopes   NumCurves=24   NumPoints=11   MinEccen=Yes   PatLLF=0.75   UFLimit=0.95   SeisCat=D   Rho=1   Sds=0.5   PhiT=0.9   PhiCTied=0.65   PhiCSpiral=0.75   PhiV=0.75   PhiVSeismic=0.6   PhiVJoint=0.85
 
TABLE:  "PREFERENCES - DIMENSIONAL"
   MergeTol=1   FineGrid=250   Nudge=250   SelectTol=3   SnapTol=12   SLineThick=2   PLineThick=4   MaxFont=8   MinFont=3   AutoZoom=10   ShrinkFact=70   TextFileLen=240
 
TABLE:  "PREFERENCES - STEEL DESIGN - AISC 360-10"
   THDesign=Envelopes   FrameType=SMF   PatLLF=0.75   SRatioLimit=0.95   MaxIter=1   SDC=D   SeisCode=Yes   SeisLoad=Yes   ImpFactor=1   SystemRho=1   SystemSds=0.5   SystemR=8   SystemCd=5.5   Omega0=3   Provision=LRFD _
        AMethod="Direct Analysis"   SOMethod="General 2nd Order"   SRMethod="Tau-b Fixed"   NLCoeff=0.002   PhiB=0.9   PhiC=0.9   PhiTY=0.9   PhiTF=0.75   PhiV=0.9   PhiVRolledI=1   PhiVT=0.9   PlugWeld=Yes   HSSWelding=ERW   HSSReduceT=No _
        CheckDefl=No   DLRat=120   SDLAndLLRat=120   LLRat=360   TotalRat=240   NetRat=240
 
TABLE:  "PROGRAM CONTROL"
   ProgramName=SAP2000   Version=18.2.0   CurrUnits="N, mm, C"   SteelCode="AISC 360-10"   ConcCode="ACI 318-14"   AlumCode="AA-ASD 2000"   ColdCode=AISI-ASD96   RegenHinge=Yes
 
TABLE:  "PROJECT INFORMATION"
   Item="Company Name"
   Item="Client Name"
   Item="Project Name"
   Item="Project Number"
   Item="Model Name"
   Item="Model Description"
   Item="Revision Number"
   Item="Frame Type"
   Item=Engineer
   Item=Checker
   Item=Supervisor
   Item="Issue Code"
   Item="Design Code"
 
TABLE:  "PUSHOVER PARAMETERS - ATC40"
   ParamName=A40PO1   PlotAxes=Sa-Sd   DemandFrom=ATC40   Ca=0.4   Cv=0.4   AddDamp=0.05   StructType=B   BetaZero1=25   Kappa1=0.67   BetaZero2=45   Kappa2=0.53   PlotCap=Yes   PlotDemand=Yes   PlotLocus=Yes   PlotPeriod=Yes _
        CapColor=Green   DemandColor=Red   LocusColor=Yellow   PeriodColor=Gray4   Damp1=0.05   Damp2=0.1   Damp3=0.15   Damp4=0.2   Period1=0.5   Period2=1   Period3=1.5   Period4=2
 
TABLE:  "PUSHOVER PARAMETERS - AXIS DATA"
   PlotType=Force-Displ   ParamName=VDPO1   DisplMin=0   DisplMax=0   ForceMin=0   ForceMax=0   HorizLabel=Displacement   VertLabel="Base Reaction"
   PlotType=Force-Displ   ParamName=VDPO2   DisplMin=0   DisplMax=0   ForceMin=0   ForceMax=0   HorizLabel=Displacement   VertLabel="Base Reaction"
   PlotType=ATC40   ParamName=A40PO1   DisplMin=0   DisplMax=0   SaMin=0   SaMax=0   HorizLabel="Spectral Displacement"   VertLabel="Spectral Acceleration - g"
   PlotType=FEMA356   ParamName=F356PO1   DisplMin=0   DisplMax=0   ForceMin=0   ForceMax=0   HorizLabel=Displacement   VertLabel="Base Reaction"
   PlotType=FEMA440EL   ParamName=F440POEL1   DisplMin=0   DisplMax=0   SaMin=0   SaMax=0   HorizLabel="Spectral Displacement"   VertLabel="Spectral Acceleration - g"
   PlotType=FEMA440DM   ParamName=F440PODM1   DisplMin=0   DisplMax=0   ForceMin=0   ForceMax=0   HorizLabel=Displacement   VertLabel="Base Reaction"
 
TABLE:  "PUSHOVER PARAMETERS - FEMA356"
   ParamName=F356PO1   Beff=0.05   DemandFrom=FEMA356   Ss=1   S1=0.4   SiteClass=D   UserC2=No   UserC3=No   UserCm=No   PlotCap=Yes   PlotBiLin=Yes   CapColor=Green   BiLinColor=Red
 
TABLE:  "PUSHOVER PARAMETERS - FEMA440 DISPLACEMENT MODIFICATION"
   ParamName=F440PODM1   Beff=0.05   DemandFrom=FEMA356   Ss=1   S1=0.4   SiteClass=D   UserC2=No   UserCm=No   PlotCap=Yes   PlotBiLin=Yes   CapColor=Green   BiLinColor=Red
 
TABLE:  "PUSHOVER PARAMETERS - FEMA440 EQUIVALENT LINEARIZATION"
   ParamName=F440POEL1   PlotAxes=Sa-Sd   DemandFrom=ATC40   Ca=0.4   Cv=0.4   AddDamp=0.05   UserBeff=No   UserTeff=No   PlotCap=Yes   PlotDemand=Yes   PlotLocus=Yes   PlotPeriod=Yes   CapColor=Green   DemandColor=Red   LocusColor=Yellow _
        PeriodColor=Gray4   DuctRatio1=1   DuctRatio2=1.5   DuctRatio3=2   DuctRatio4=2.5   Period1=0.5   Period2=1   Period3=1.5   Period4=2
 
TABLE:  "PUSHOVER PARAMETERS - FORCE DISPLACEMENT"
   ParamName=VDPO1   CapColor=Green
   ParamName=VDPO2   CapColor=Green
 
TABLE:  "REBAR SIZES"
   RebarID=#2   Area=32.258   Diameter=6.35
   RebarID=#3   Area=70.9675996154547   Diameter=9.525
   RebarID=#4   Area=129.032001922727   Diameter=12.7
   RebarID=#5   Area=199.999601538181   Diameter=15.875
   RebarID=#6   Area=283.870398461819   Diameter=19.05
   RebarID=#7   Area=387.096015381813   Diameter=22.225
   RebarID=#8   Area=509.676413843632   Diameter=25.4
   RebarID=#9   Area=645.16   Diameter=28.6512005329132
   RebarID=#10   Area=819.35318769455   Diameter=32.2579995155334
   RebarID=#11   Area=1006.44956308365   Diameter=35.8139991521835
   RebarID=#14   Area=1451.61   Diameter=43.0021989583969
   RebarID=#18   Area=2580.64   Diameter=57.3277992248535
   RebarID=10M   Area=100.000002655387   Diameter=11.300000667572
   RebarID=15M   Area=200.000005310774   Diameter=15.9999999403954
   RebarID=20M   Area=300.000017579794   Diameter=19.4999997854233
   RebarID=25M   Area=500.000022890568   Diameter=25.2000016093254
   RebarID=30M   Area=700.000008974075   Diameter=29.9000008821487
   RebarID=35M   Area=1000.00004578114   Diameter=35.7000011444092
   RebarID=45M   Area=1500.00010712624   Diameter=43.7000003576279
   RebarID=55M   Area=2500.00007599831   Diameter=56.4000033855438
   RebarID=6d   Area=28.3000004149973   Diameter=6.00000016689301
   RebarID=8d   Area=50.2999995571375   Diameter=7.99999997019768
   RebarID=10d   Area=78.5000013634562   Diameter=9.99999977350235
   RebarID=12d   Area=113.000009249449   Diameter=12.000000333786
   RebarID=14d   Area=154.000010818839   Diameter=14.0000008940697
   RebarID=16d   Area=201.000015431643   Diameter=15.9999999403954
   RebarID=20d   Area=314.000005453825   Diameter=19.9999995470047
   RebarID=25d   Area=491.000008711815   Diameter=25.0000001907349
   RebarID=26d   Area=531.000029001236   Diameter=25.9999997138977
   RebarID=28d   Area=616.000043275356   Diameter=28.0000017881393
   RebarID=N12   Area=113.000009249449   Diameter=12.000000333786
   RebarID=N16   Area=201.000015431643   Diameter=15.9999999403954
   RebarID=N20   Area=314.000005453825   Diameter=19.9999995470047
   RebarID=N24   Area=452.000036997795   Diameter=24.000000667572
   RebarID=N28   Area=616.000043275356   Diameter=28.0000017881393
   RebarID=N32   Area=804.00006172657   Diameter=31.9999998807907
   RebarID=N36   Area=1020.00001747131   Diameter=36.000001001358
 
END TABLE DATA
